Circuit: * C:\Documents and Settings\dalyuser.FESCENTER\My Documents\Visual Studio 2008\Projects\biomedken\tpain\tpain.asc

Direct Newton iteration for .op point succeeded.

Date: Fri May 28 14:44:49 2010
Total elapsed time: 1.423 seconds.

tnom = 27
temp = 27
method = modified trap
totiter = 26468
traniter = 26421
tranpoints = 7661
accept = 5849
rejected = 1812
matrix size = 43
fillins = 62
solver = Normal
Matrix Compiler1: 10.0 KB object code size  6.4/4.9/[2.9]
Matrix Compiler2: 5.28 KB object code size  2.9/3.7/[2.0]


