Circuit: * C:\Documents and Settings\HP_Administrator\My Documents\Visual Studio 2008\Projects\biomedken\churro\pulse_source.asc

WARNING: Less than two connections to node OUT.  This node is used by R11.
.OP point found by inspection.

Date: Sun Jun 06 14:38:20 2010
Total elapsed time: 0.048 seconds.

tnom = 27
temp = 27
method = modified trap
totiter = 2542
traniter = 2542
tranpoints = 1272
accept = 1272
rejected = 0
matrix size = 4
fillins = 0
solver = Normal
Matrix Compiler1: 100 bytes object code size  2.5/2.4/[2.3]
Matrix Compiler2: 248 bytes object code size  2.3/2.6/[2.4]


