Circuit: * C:\Documents and Settings\dalyuser.FESCENTER\My Documents\Visual Studio 2008\Projects\biomedken\churro\test_input_train_of_pulses.asc

Limiting rise time of source v§source to 5e-009
Limiting fall time of source v§source to 5e-009
Direct Newton iteration failed to find .op point.  (Use ".option noopiter" to skip.)
Starting Gmin stepping
Gmin = 10
Gmin = 1.07374
Gmin = 0.115292
Gmin = 0.0123794
Gmin = 0.00132923
vernier = 0.5
vernier = 0.25
vernier = 0.125
vernier = 0.0625
Gmin = 0.00100083
vernier = 0.03125
vernier = 0.015625
vernier = 0.0078125
vernier = 0.00390625
vernier = 0.00195313
Gmin = 0.00100083
vernier = 0.000976563
vernier = 0.000488281
Gmin = 0
Gmin stepping failed

Starting source stepping with srcstepmethod=0
Source Step = 3.0303%
Source Step = 33.3333%
Source Step = 63.6364%
Source Step = 93.9394%
Source stepping succeeded in finding the operating point.


Date: Mon Jun 07 12:16:48 2010
Total elapsed time: 3.969 seconds.

tnom = 27
temp = 27
method = modified trap
totiter = 32353
traniter = 30420
tranpoints = 7850
accept = 6149
rejected = 1701
matrix size = 127
fillins = 206
solver = Normal
Matrix Compiler1: 16.0 KB object code size  13.1/8.3/[4.5]
Matrix Compiler2: 13.2 KB object code size  9.3/9.1/[3.3]


