Circuit: * C:\Documents and Settings\dalyuser\My Documents\Visual Studio 2008\Projects\biomedken\churro\pulse_stretcher.asc

Limiting rise time of source v§source to 5e-009
Limiting fall time of source v§source to 5e-009
WARNING: Less than two connections to node OUT.  This node is used by D3.
Direct Newton iteration failed to find .op point.  (Use ".option noopiter" to skip.)
Starting Gmin stepping
Gmin = 10
Gmin = 1.07374
Gmin = 0.115292
Gmin = 0.0123794
Gmin = 0.00132923
vernier = 0.5
vernier = 0.25
vernier = 0.125
vernier = 0.0625
Gmin = 0.00100083
vernier = 0.03125
vernier = 0.015625
vernier = 0.0078125
vernier = 0.00390625
vernier = 0.00195313
Gmin = 0.00100083
vernier = 0.000976563
vernier = 0.000488281
Gmin = 0
Gmin stepping succeeded in finding the operating point.

Date: Mon Jun 07 19:06:34 2010
Total elapsed time: 4.657 seconds.

tnom = 27
temp = 27
method = modified trap
totiter = 35791
traniter = 34201
tranpoints = 8619
accept = 6731
rejected = 1888
trancuriters = 0
matrix size = 129
fillins = 161
solver = Normal

