Circuit: * C:\Documents and Settings\dalyuser\My Documents\Visual Studio 2008\Projects\biomedken\churro\pulse_source.asc

Direct Newton iteration for .op point succeeded.
