Circuit: * C:\Documents and Settings\HP_Administrator\My Documents\Visual Studio 2008\Projects\biomedken\churro\pulse_stretcher.asc

Direct Newton iteration failed to find .op point.  (Use ".option noopiter" to skip.)
Starting Gmin stepping
Gmin = 10
Gmin = 1.07374
Gmin = 0.115292
Gmin = 0.0123794
Gmin = 0.00132923
vernier = 0.5
vernier = 0.25
vernier = 0.125
vernier = 0.0625
Gmin = 0.00100083
vernier = 0.03125
vernier = 0.015625
vernier = 0.0078125
vernier = 0.00390625
vernier = 0.00195313
Gmin = 0.00100083
vernier = 0.000976563
vernier = 0.000488281
Gmin = 0
Gmin stepping failed

Starting source stepping with srcstepmethod=0
Source Step = 3.0303%
Source Step = 33.3333%
Source Step = 63.6364%
Source Step = 93.9394%
Source stepping succeeded in finding the operating point.


Date: Sun Jun 06 15:03:59 2010
Total elapsed time: 1.892 seconds.

tnom = 27
temp = 27
method = modified trap
totiter = 15615
traniter = 13682
tranpoints = 3868
accept = 3193
rejected = 675
matrix size = 127
fillins = 196
solver = Normal
Thread vector: 55.9/46.4[2] 24.4/17.2[2] 19.5/8.7[2] 4.4/6.3[1]  2592/500
Matrix Compiler1: 15.4 KB object code size  13.5/10.4/[4.8]
Matrix Compiler2: off  [7.6]/9.0/21.5


