Circuit: * C:\Documents and Settings\dalyuser.FESCENTER\My Documents\Visual Studio 2008\Projects\biomedken\churro\train_of_pulses.asc

WARNING: Less than two connections to node OUT.  This node is used by R11.
.OP point found by inspection.

Date: Mon Jun 07 07:23:32 2010
Total elapsed time: 0.015 seconds.

tnom = 27
temp = 27
method = modified trap
totiter = 2294
traniter = 2294
tranpoints = 1148
accept = 1148
rejected = 0
matrix size = 4
fillins = 0
solver = Normal
Matrix Compiler1: 100 bytes object code size  1.5/1.5/[1.4]
Matrix Compiler2: 248 bytes object code size  1.4/1.5/[1.4]


